REDE/PADRAO_ONS.PWF
(
( Gravacao de .PWF - CART
( Versao do Anarede: 11.07.00
( Data e Hora da Gravacao: 02/08/2023 - 14:04:10                                                           
(
TITU
CASO 5 - BESS P>0, Q<0                                                          
DCTE
(Mn) ( Val) (Mn) ( Val) (Mn) ( Val) (Mn) ( Val) (Mn) ( Val) (Mn) ( Val) 
BASE     6. DASE   100. TEPA     .1 EXST     .4 TETP     5. TBPA     5.
TLPP     1. TEPR     .1 QLST     .4 TLPR     .1 TLPQ     2. TSBZ    .01
TSBA     5. ASTP    .05 VSTP     5. TLVC     .5 TLTC    .01 TSFR  .1E-7
ZMAX   500. TLPV     .5 VDVM   200. VDVN    40. TUDC   .001 TADC    .01
PGER    30. TPST     .2 VFLD    70. ZMIN   .001 HIST    470 LFIT     10
ACIT     30 LFCV      1 DCIT     10 VSIT     10 LPIT     50 LFLP     10
PDIT     10 LCRT     96 LPRT     60 CSTP     5. ASDC     1.
ICIT   9999 DMAX      5 FDIV     2. ICMN    .05 VART     5. TSTP     33
ICMV     .5 APAS    90. CPAR    70. VAVT     2. VAVF     5. VMVF     .9
VPVT     2. VPVF     5. VPMF     .6 VSVF    20. VINF     1. VSUP     1.
TLSI     0. NDIR    20. STTR     5. TRPT   100. STIR     1. BFPO    .06
LFPO   .006 TLMT     0. TLMF     0. TLMG     0. PARS    10.            
99999
DBAR
(Num)OETGb(   nome   )Gl( V)( A)( Pg)( Qg)( Qn)( Qm)(Bc  )( Pl)( Ql)( Sh)Are(Vf)M(1)(2)(3)(4)(5)(6)(7)(8)(9)(10
    1 L2 1B1            1000  0.-2.98 1.44-600.6000.                       11000                                   
    2 L  1B2             9823.04                                           11000                                   
    3 L  2B3             9704.84                                           11000                                   
    4 L1 2B4             9704.86   3.-1.15 -10.  10.                       11000                                   
99999
DLIN
(De )d O d(Pa )NcEPM( R% )( X% )(Mvar)(Tap)(Tmn)(Tmx)(Phs)(Bc  )(Cn)(Ce)Ns(Cq)(1)(2)(3)(4)(5)(6)(7)(8)(9)(10
    1         2 1       1.   10.                                  6. 10.   10.                                
    3         2 1      .01    6.         1.                       6. 10.   10.                                
    3         4 1     .006   .06                                  6. 10.   10.                                
99999
DGBT
(G ( kV)
 1  138.
 2  34.5
99999
FIM
